Version 4.1
SHEET 1 1260 680
WIRE 368 16 208 16
WIRE 464 16 448 16
WIRE 528 16 464 16
WIRE 624 16 608 16
WIRE 688 16 624 16
WIRE 784 16 768 16
WIRE 848 16 784 16
WIRE 944 16 928 16
WIRE 1136 16 944 16
WIRE 464 48 464 16
WIRE 624 48 624 16
WIRE 784 48 784 16
WIRE 944 48 944 16
WIRE 464 128 464 112
WIRE 464 128 208 128
WIRE 624 128 624 112
WIRE 624 128 464 128
WIRE 784 128 784 112
WIRE 784 128 624 128
WIRE 944 128 944 112
WIRE 944 128 784 128
WIRE 1136 128 944 128
FLAG 1136 16 Tcase
IOPIN 1136 16 Out
FLAG 1136 128 Tref
IOPIN 1136 128 BiDir
FLAG 208 16 Ploss
IOPIN 208 16 In
FLAG 208 128 Tref
IOPIN 208 128 BiDir
SYMBOL res 464 0 R90
WINDOW 0 0 56 VBottom 2
WINDOW 3 32 56 VTop 2
SYMATTR InstName R1
SYMATTR Value {R1_th}
SYMBOL cap 448 48 R0
SYMATTR InstName C1
SYMATTR Value {C1_th}
SYMBOL res 624 0 R90
WINDOW 0 0 56 VBottom 2
WINDOW 3 32 56 VTop 2
SYMATTR InstName R2
SYMATTR Value {R2_th}
SYMBOL cap 608 48 R0
SYMATTR InstName C2
SYMATTR Value {C2_th}
SYMBOL res 784 0 R90
WINDOW 0 0 56 VBottom 2
WINDOW 3 32 56 VTop 2
SYMATTR InstName R3
SYMATTR Value {R3_th}
SYMBOL cap 768 48 R0
SYMATTR InstName C3
SYMATTR Value {C3_th}
SYMBOL res 944 0 R90
WINDOW 0 0 56 VBottom 2
WINDOW 3 32 56 VTop 2
SYMATTR InstName R4
SYMATTR Value {R4_th}
SYMBOL cap 928 48 R0
SYMATTR InstName C4
SYMATTR Value {C4_th}
TEXT 472 -272 Left 2 !.param R1_th = 0.6118404411691064\n.param C1_th = 0.002520008634711351\n.param R2_th = 0.19499571670890095\n.param C2_th = 0.02594616038150546\n.param R3_th = 0.09235904457392644\n.param C3_th = 5.223608553217636e-05\n.param R4_th = 0.5943366372679411\n.param C4_th = 0.002520000009068628
